Completed: ngspice -b -r /foss/designs/gLayout-mahowalders/blocks/composite/regulated_cascoded_cmirror/xschem/simulation/testbench.raw /foss/designs/gLayout-mahowalders/blocks/composite/regulated_cascoded_cmirror/xschem/simulation/testbench.spice
data:

Note: No compatibility mode selected!


Circuit: ** sch_path: /foss/designs/glayout-mahowalders/blocks/composite/regulated_cascoded_cmirror/xschem/testbench.sch

Doing analysis at TEMP = 27.000000 and TNOM = 27.000000

Using SPARSE 1.3 as Direct Linear Solver

No. of Data Rows : 331
Doing analysis at TEMP = 27.000000 and TNOM = 27.000000

Using SPARSE 1.3 as Direct Linear Solver

No. of Data Rows : 331
Doing analysis at TEMP = 27.000000 and TNOM = 27.000000

Using SPARSE 1.3 as Direct Linear Solver

No. of Data Rows : 331
binary raw file "testbench.raw"
binary raw file "/foss/designs/gLayout-mahowalders/blocks/composite/regulated_cascoded_cmirror/xschem/simulation/testbench.raw"
Doing analysis at TEMP = 27.000000 and TNOM = 27.000000

Using SPARSE 1.3 as Direct Linear Solver

Total analysis time (seconds) = 0.0166284

Total elapsed time (seconds) = 0.058 

Total DRAM available = 7837.328 MB.
DRAM currently available = 5222.645 MB.
Maximum ngspice program size =   86.586 MB.
Current ngspice program size =   18.340 MB.

Shared ngspice pages =   10.590 MB.
Text (code) pages =    5.559 MB.
Stack = 0 bytes.
Library pages =   64.094 MB.

